** CalculiX Input File - Simple Cantilever Beam Test
** Units: SI (m, kg, s, Pa)
**
*NODE
** Node definitions (simple beam: 1m length, divided into 10 elements)
1, 0.0, 0.0, 0.0
2, 0.1, 0.0, 0.0
3, 0.2, 0.0, 0.0
4, 0.3, 0.0, 0.0
5, 0.4, 0.0, 0.0
6, 0.5, 0.0, 0.0
7, 0.6, 0.0, 0.0
8, 0.7, 0.0, 0.0
9, 0.8, 0.0, 0.0
10, 0.9, 0.0, 0.0
11, 1.0, 0.0, 0.0
**
*ELEMENT, TYPE=B31, ELSET=BEAM
** 2-node beam elements
1, 1, 2
2, 2, 3
3, 3, 4
4, 4, 5
5, 5, 6
6, 6, 7
7, 7, 8
8, 8, 9
9, 9, 10
10, 10, 11
**
** Beam section properties (rectangular cross-section: 0.1m x 0.05m)
*BEAM SECTION, ELSET=BEAM, MATERIAL=STEEL, SECTION=RECT
0.1, 0.05
0.0, 0.0, 1.0
**
** Material properties - Steel
*MATERIAL, NAME=STEEL
*ELASTIC
210E9, 0.3
*DENSITY
7850.0
**
** Boundary conditions - Fixed support at node 1
*BOUNDARY
1, 1, 6
**
** Define node set for loading
*NSET, NSET=LOAD_NODE
11
**
** Analysis step
*STEP
*STATIC
**
** Apply concentrated load at free end (1000 N downward in Y direction)
*CLOAD
11, 2, -1000.0
**
** Output requests
*NODE FILE
U, RF
*EL FILE
S, E
**
*END STEP
