*HEADING
HexCantileverBeam
*NODE
1,0,0,0
2,10,0,0
3,10,1,0
4,0,1,0
5,0,0,1
6,10,0,1
7,10,1,1
8,0,1,1
9,5,0,0
10,10,0.5,0
11,5,1,0
12,0,0.5,0
13,5,0,1
14,10,0.5,1
15,5,1,1
16,0,0.5,1
17,0,0,0.5
18,10,0,0.5
19,10,1,0.5
20,0,1,0.5
*ELEMENT,TYPE=C3D20R,ELSET=E_BEAM
1,1,2,3,4,5,6,7,8,9,10,11,12,13,14,15,
16,17,18,19,20
*NSET,NSET=SUPPORT_1_ROOT_FIX
1,4,5,8,12,16,17,20,
*MATERIAL,NAME=MAT_STEEL
*ELASTIC
210000,0.3
*SOLID SECTION,ELSET=E_BEAM,MATERIAL=MAT_STEEL
*BOUNDARY
SUPPORT_1_ROOT_FIX,1,3
*STEP
*STATIC
*CLOAD
2,3,-1000
*NODE FILE
U,RF
*NODE PRINT,NSET=SUPPORT_1_ROOT_FIX
RF
*EL FILE
S,E,PEEQ
*EL PRINT,ELSET=E_BEAM
S,E
*END STEP
